  
       XFOIL         Version 6.99
  
 Calculated polar for:                                                 
  
 1 1 Reynolds number fixed          Mach number fixed         
  
 xtrf =   1.000 (top)        1.000 (bottom)  
 Mach =   0.000     Re =     1.000 e 6     Ncrit =   9.000
  
   alpha    CL        CD       CDp       CM     Top_Xtr  Bot_Xtr
  ------ -------- --------- --------- -------- -------- --------
   1.500   0.2043   0.01832   0.01477  -0.0125   0.8506   0.8820
   2.000   0.2663   0.01898   0.01542  -0.0151   0.8373   0.8830
   2.500   0.3363   0.01930   0.01571  -0.0197   0.8235   0.8840
   3.000   0.4003   0.01968   0.01601  -0.0228   0.8010   0.8855
   3.500   0.4224   0.01948   0.01573  -0.0159   0.7789   0.8950
   4.000   0.4758   0.02025   0.01640  -0.0166   0.7493   0.8957
   4.500   0.5145   0.02140   0.01740  -0.0138   0.7110   0.8970
   5.000   0.5520   0.02252   0.01839  -0.0108   0.6738   0.8988
   5.500   0.5430   0.02334   0.01904   0.0031   0.6299   0.9083
   6.000   0.5772   0.02481   0.02033   0.0065   0.5841   0.9093
   6.500   0.6087   0.02631   0.02166   0.0102   0.5382   0.9108
   7.000   0.6316   0.02800   0.02309   0.0157   0.4798   0.9131
   7.500   0.6367   0.02864   0.02361   0.0256   0.4466   0.9210
   8.000   0.6744   0.03004   0.02484   0.0274   0.4033   0.9219
   8.500   0.7080   0.03155   0.02614   0.0300   0.3556   0.9231
   9.000   0.7449   0.03285   0.02730   0.0318   0.3242   0.9250
   9.500   0.7448   0.03370   0.02802   0.0422   0.2910   0.9324
  10.000   0.7867   0.03510   0.02931   0.0425   0.2631   0.9331
  10.500   0.8236   0.03660   0.03068   0.0438   0.2328   0.9341
  11.000   0.8571   0.03806   0.03202   0.0457   0.2068   0.9355
  11.500   0.8561   0.03909   0.03300   0.0558   0.1903   0.9428
  12.000   0.8905   0.04079   0.03457   0.0569   0.1635   0.9434
  12.500   0.9285   0.04229   0.03606   0.0574   0.1544   0.9440
  13.000   0.9626   0.04393   0.03765   0.0585   0.1390   0.9450
  13.500   0.9921   0.04578   0.03948   0.0602   0.1261   0.9464
  14.000   0.9875   0.04721   0.04088   0.0699   0.1170   0.9528
  14.500   1.0231   0.04895   0.04266   0.0701   0.1101   0.9532
  15.000   1.0519   0.05112   0.04483   0.0712   0.1024   0.9539
  16.000   1.1076   0.05564   0.04939   0.0732   0.0883   0.9560
  16.500   1.0949   0.05774   0.05152   0.0831   0.0838   0.9618
  17.000   1.1232   0.06014   0.05396   0.0833   0.0786   0.9622
  17.500   1.1457   0.06303   0.05690   0.0839   0.0743   0.9627
  18.000   1.1680   0.06615   0.06009   0.0841   0.0706   0.9634
  18.500   1.1845   0.06961   0.06362   0.0850   0.0663   0.9643
  19.000   1.1952   0.07300   0.06707   0.0869   0.0627   0.9655
  19.500   1.1769   0.07659   0.07072   0.0946   0.0605   0.9703
