  
       XFOIL         Version 6.99
  
 Calculated polar for: NACA 23015                                      
  
 1 1 Reynolds number fixed          Mach number fixed         
  
 xtrf =   1.000 (top)        1.000 (bottom)  
 Mach =   0.000     Re =     0.500 e 6     Ncrit =   9.000
  
   alpha    CL        CD       CDp       CM     Top_Xtr  Bot_Xtr
  ------ -------- --------- --------- -------- -------- --------
   0.000   0.1146   0.00770   0.00245  -0.0057   0.5384   0.7914
   0.100   0.1248   0.00773   0.00248  -0.0053   0.5302   0.8010
   0.200   0.1351   0.00776   0.00249  -0.0051   0.5213   0.8114
   0.300   0.1451   0.00780   0.00253  -0.0047   0.5128   0.8215
   0.400   0.1554   0.00783   0.00255  -0.0044   0.5037   0.8316
   0.500   0.1654   0.00788   0.00259  -0.0040   0.4950   0.8404
   0.600   0.1758   0.00792   0.00261  -0.0038   0.4860   0.8487
   0.800   0.1968   0.00802   0.00267  -0.0033   0.4684   0.8611
   0.900   0.2070   0.00809   0.00269  -0.0030   0.4597   0.8673
   1.000   0.2178   0.00813   0.00272  -0.0028   0.4514   0.8722
   1.100   0.2282   0.00820   0.00276  -0.0026   0.4427   0.8779
   1.200   0.2385   0.00825   0.00278  -0.0023   0.4347   0.8841
   1.300   0.2491   0.00832   0.00282  -0.0021   0.4259   0.8887
   1.400   0.2597   0.00839   0.00286  -0.0019   0.4178   0.8936
   1.500   0.2700   0.00846   0.00289  -0.0017   0.4091   0.8992
   1.600   0.2801   0.00854   0.00293  -0.0014   0.4010   0.9044
   1.700   0.2911   0.00861   0.00298  -0.0012   0.3921   0.9085
   1.800   0.3015   0.00871   0.00303  -0.0010   0.3839   0.9132
   1.900   0.3115   0.00877   0.00307  -0.0007   0.3756   0.9186
   2.000   0.3219   0.00887   0.00311  -0.0005   0.3676   0.9227
   2.100   0.3334   0.00895   0.00317  -0.0005   0.3597   0.9261
   2.200   0.3439   0.00906   0.00323  -0.0003   0.3520   0.9303
   2.300   0.3540   0.00913   0.00328   0.0000   0.3454   0.9352
   2.400   0.3647   0.00922   0.00332   0.0002   0.3383   0.9390
   2.500   0.3767   0.00933   0.00339   0.0001   0.3315   0.9417
   2.600   0.3888   0.00942   0.00346  -0.0001   0.3252   0.9447
   2.700   0.4001   0.00952   0.00352  -0.0001   0.3188   0.9483
   2.800   0.4096   0.00962   0.00358   0.0003   0.3135   0.9529
   2.900   0.4225   0.00970   0.00364   0.0000   0.3078   0.9552
   3.000   0.4362   0.00982   0.00371  -0.0005   0.3020   0.9570
   3.100   0.4497   0.00994   0.00379  -0.0010   0.2968   0.9590
   3.200   0.4634   0.01002   0.00385  -0.0015   0.2923   0.9612
   3.300   0.4763   0.01012   0.00392  -0.0019   0.2878   0.9637
   3.400   0.4873   0.01022   0.00399  -0.0018   0.2838   0.9672
   3.500   0.5005   0.01035   0.00407  -0.0023   0.2798   0.9692
   3.600   0.5162   0.01042   0.00414  -0.0032   0.2765   0.9701
   3.700   0.5318   0.01051   0.00421  -0.0042   0.2729   0.9711
   3.800   0.5474   0.01062   0.00428  -0.0052   0.2693   0.9720
   3.900   0.5628   0.01074   0.00436  -0.0061   0.2658   0.9730
   4.000   0.5779   0.01086   0.00445  -0.0070   0.2625   0.9741
   4.100   0.5932   0.01092   0.00452  -0.0079   0.2599   0.9754
   4.200   0.6079   0.01100   0.00459  -0.0087   0.2571   0.9770
   4.300   0.6217   0.01109   0.00466  -0.0093   0.2543   0.9788
   4.400   0.6334   0.01119   0.00473  -0.0094   0.2519   0.9815
   4.500   0.6488   0.01131   0.00481  -0.0104   0.2491   0.9822
   4.600   0.6641   0.01146   0.00492  -0.0114   0.2463   0.9830
   4.700   0.6800   0.01151   0.00498  -0.0124   0.2446   0.9838
   4.800   0.6956   0.01157   0.00505  -0.0134   0.2426   0.9847
   4.900   0.7109   0.01164   0.00511  -0.0143   0.2404   0.9857
   5.000   0.7259   0.01172   0.00518  -0.0152   0.2382   0.9868
   5.100   0.7406   0.01181   0.00525  -0.0160   0.2360   0.9881
   5.200   0.7549   0.01193   0.00534  -0.0168   0.2338   0.9894
   5.300   0.7688   0.01207   0.00544  -0.0174   0.2314   0.9909
   5.400   0.7825   0.01219   0.00556  -0.0180   0.2294   0.9923
   5.500   0.7971   0.01224   0.00562  -0.0188   0.2281   0.9934
   5.600   0.8126   0.01230   0.00569  -0.0198   0.2265   0.9941
   5.700   0.8279   0.01236   0.00575  -0.0207   0.2248   0.9949
   5.800   0.8430   0.01243   0.00582  -0.0217   0.2231   0.9958
   5.900   0.8579   0.01251   0.00589  -0.0225   0.2212   0.9968
   6.000   0.8726   0.01260   0.00597  -0.0234   0.2194   0.9978
   6.100   0.8871   0.01272   0.00606  -0.0242   0.2175   0.9988
   6.200   0.9013   0.01287   0.00618  -0.0250   0.2154   0.9997
   6.300   0.9114   0.01302   0.00631  -0.0249   0.2136   1.0000
   6.400   0.9195   0.01305   0.00637  -0.0244   0.2128   1.0000
   6.500   0.9276   0.01310   0.00643  -0.0239   0.2118   1.0000
   6.600   0.9356   0.01315   0.00649  -0.0233   0.2108   1.0000
   6.700   0.9435   0.01320   0.00656  -0.0227   0.2096   1.0000
   6.800   0.9514   0.01326   0.00663  -0.0222   0.2085   1.0000
   6.900   0.9592   0.01333   0.00670  -0.0216   0.2072   1.0000
   7.000   0.9669   0.01340   0.00677  -0.0210   0.2060   1.0000
   7.100   0.9745   0.01347   0.00684  -0.0203   0.2047   1.0000
   7.200   0.9819   0.01356   0.00692  -0.0197   0.2034   1.0000
   7.300   0.9891   0.01366   0.00701  -0.0190   0.2022   1.0000
   7.400   0.9962   0.01379   0.00712  -0.0183   0.2008   1.0000
   7.500   1.0028   0.01395   0.00727  -0.0175   0.1993   1.0000
   7.600   1.0097   0.01411   0.00741  -0.0168   0.1980   1.0000
   7.700   1.0176   0.01416   0.00749  -0.0162   0.1973   1.0000
   7.800   1.0255   0.01421   0.00756  -0.0156   0.1964   1.0000
   7.900   1.0333   0.01427   0.00764  -0.0150   0.1954   1.0000
   8.000   1.0411   0.01434   0.00773  -0.0143   0.1944   1.0000
   8.100   1.0488   0.01441   0.00781  -0.0137   0.1932   1.0000
   8.200   1.0565   0.01448   0.00789  -0.0131   0.1921   1.0000
   8.300   1.0642   0.01456   0.00798  -0.0125   0.1909   1.0000
   8.400   1.0717   0.01465   0.00807  -0.0118   0.1898   1.0000
   8.500   1.0791   0.01475   0.00817  -0.0112   0.1887   1.0000
   8.600   1.0865   0.01486   0.00827  -0.0105   0.1876   1.0000
   8.700   1.0936   0.01499   0.00839  -0.0098   0.1864   1.0000
   8.800   1.1004   0.01515   0.00853  -0.0091   0.1851   1.0000
   8.900   1.1068   0.01537   0.00873  -0.0083   0.1836   1.0000
   9.000   1.1146   0.01546   0.00885  -0.0077   0.1827   1.0000
   9.100   1.1228   0.01553   0.00894  -0.0072   0.1819   1.0000
   9.200   1.1308   0.01560   0.00904  -0.0066   0.1810   1.0000
   9.300   1.1388   0.01568   0.00914  -0.0061   0.1800   1.0000
   9.400   1.1467   0.01576   0.00924  -0.0055   0.1789   1.0000
   9.500   1.1546   0.01585   0.00935  -0.0050   0.1778   1.0000
   9.600   1.1625   0.01594   0.00945  -0.0044   0.1767   1.0000
   9.700   1.1703   0.01604   0.00956  -0.0039   0.1756   1.0000
   9.800   1.1781   0.01615   0.00966  -0.0033   0.1745   1.0000
   9.900   1.1857   0.01627   0.00979  -0.0028   0.1733   1.0000
