  
       XFOIL         Version 6.99
  
 Calculated polar for: NACA 23015                                      
  
 1 1 Reynolds number fixed          Mach number fixed         
  
 xtrf =   1.000 (top)        1.000 (bottom)  
 Mach =   0.000     Re =     0.000 e 6     Ncrit =   9.000
  
   alpha    CL        CD       CDp       CM     Top_Xtr  Bot_Xtr
  ------ -------- --------- --------- -------- -------- --------
   0.000   0.1415   0.00000  -0.00139  -0.0114   0.0000   0.0000
   0.100   0.1539   0.00000  -0.00139  -0.0116   0.0000   0.0000
   0.200   0.1662   0.00000  -0.00139  -0.0118   0.0000   0.0000
   0.300   0.1786   0.00000  -0.00138  -0.0120   0.0000   0.0000
   0.400   0.1910   0.00000  -0.00138  -0.0122   0.0000   0.0000
   0.500   0.2034   0.00000  -0.00138  -0.0124   0.0000   0.0000
   0.600   0.2157   0.00000  -0.00138  -0.0126   0.0000   0.0000
   0.700   0.2281   0.00000  -0.00138  -0.0128   0.0000   0.0000
   0.800   0.2405   0.00000  -0.00138  -0.0130   0.0000   0.0000
   0.900   0.2528   0.00000  -0.00138  -0.0132   0.0000   0.0000
   1.000   0.2652   0.00000  -0.00138  -0.0133   0.0000   0.0000
   1.100   0.2775   0.00000  -0.00138  -0.0135   0.0000   0.0000
   1.200   0.2899   0.00000  -0.00138  -0.0137   0.0000   0.0000
   1.300   0.3023   0.00000  -0.00138  -0.0139   0.0000   0.0000
   1.400   0.3146   0.00000  -0.00138  -0.0141   0.0000   0.0000
   1.500   0.3270   0.00000  -0.00138  -0.0143   0.0000   0.0000
   1.600   0.3394   0.00000  -0.00138  -0.0145   0.0000   0.0000
   1.700   0.3517   0.00000  -0.00138  -0.0147   0.0000   0.0000
   1.800   0.3641   0.00000  -0.00138  -0.0149   0.0000   0.0000
   1.900   0.3764   0.00000  -0.00138  -0.0151   0.0000   0.0000
   2.000   0.3888   0.00000  -0.00138  -0.0153   0.0000   0.0000
   2.100   0.4011   0.00000  -0.00138  -0.0155   0.0000   0.0000
   2.200   0.4135   0.00000  -0.00138  -0.0157   0.0000   0.0000
   2.300   0.4258   0.00000  -0.00138  -0.0159   0.0000   0.0000
   2.400   0.4382   0.00000  -0.00138  -0.0161   0.0000   0.0000
   2.500   0.4505   0.00000  -0.00138  -0.0163   0.0000   0.0000
   2.600   0.4629   0.00000  -0.00138  -0.0165   0.0000   0.0000
   2.700   0.4752   0.00000  -0.00138  -0.0167   0.0000   0.0000
   2.800   0.4876   0.00000  -0.00138  -0.0169   0.0000   0.0000
   2.900   0.4999   0.00000  -0.00138  -0.0171   0.0000   0.0000
   3.000   0.5123   0.00000  -0.00138  -0.0173   0.0000   0.0000
   3.100   0.5246   0.00000  -0.00138  -0.0175   0.0000   0.0000
   3.200   0.5369   0.00000  -0.00138  -0.0177   0.0000   0.0000
   3.300   0.5493   0.00000  -0.00138  -0.0179   0.0000   0.0000
   3.400   0.5616   0.00000  -0.00138  -0.0181   0.0000   0.0000
   3.500   0.5739   0.00000  -0.00138  -0.0183   0.0000   0.0000
   3.600   0.5863   0.00000  -0.00138  -0.0185   0.0000   0.0000
   3.700   0.5986   0.00000  -0.00138  -0.0187   0.0000   0.0000
   3.800   0.6109   0.00000  -0.00138  -0.0189   0.0000   0.0000
   3.900   0.6233   0.00000  -0.00138  -0.0192   0.0000   0.0000
   4.000   0.6356   0.00000  -0.00138  -0.0194   0.0000   0.0000
   4.100   0.6479   0.00000  -0.00138  -0.0196   0.0000   0.0000
   4.200   0.6602   0.00000  -0.00138  -0.0198   0.0000   0.0000
   4.300   0.6725   0.00000  -0.00138  -0.0200   0.0000   0.0000
   4.400   0.6849   0.00000  -0.00138  -0.0202   0.0000   0.0000
   4.500   0.6972   0.00000  -0.00138  -0.0204   0.0000   0.0000
   4.600   0.7095   0.00000  -0.00138  -0.0206   0.0000   0.0000
   4.700   0.7218   0.00000  -0.00139  -0.0208   0.0000   0.0000
   4.800   0.7341   0.00000  -0.00139  -0.0210   0.0000   0.0000
   4.900   0.7464   0.00000  -0.00139  -0.0212   0.0000   0.0000
   5.000   0.7587   0.00000  -0.00139  -0.0214   0.0000   0.0000
   5.100   0.7710   0.00000  -0.00139  -0.0216   0.0000   0.0000
   5.200   0.7833   0.00000  -0.00139  -0.0219   0.0000   0.0000
   5.300   0.7956   0.00000  -0.00139  -0.0221   0.0000   0.0000
   5.400   0.8079   0.00000  -0.00139  -0.0223   0.0000   0.0000
   5.500   0.8202   0.00000  -0.00139  -0.0225   0.0000   0.0000
   5.600   0.8325   0.00000  -0.00139  -0.0227   0.0000   0.0000
   5.700   0.8448   0.00000  -0.00139  -0.0229   0.0000   0.0000
   5.800   0.8570   0.00000  -0.00139  -0.0231   0.0000   0.0000
   5.900   0.8693   0.00000  -0.00139  -0.0233   0.0000   0.0000
   6.000   0.8816   0.00000  -0.00139  -0.0236   0.0000   0.0000
   6.100   0.8939   0.00000  -0.00139  -0.0238   0.0000   0.0000
   6.200   0.9062   0.00000  -0.00140  -0.0240   0.0000   0.0000
   6.300   0.9184   0.00000  -0.00140  -0.0242   0.0000   0.0000
   6.400   0.9307   0.00000  -0.00140  -0.0244   0.0000   0.0000
   6.500   0.9430   0.00000  -0.00140  -0.0246   0.0000   0.0000
   6.600   0.9552   0.00000  -0.00140  -0.0248   0.0000   0.0000
   6.700   0.9675   0.00000  -0.00140  -0.0251   0.0000   0.0000
   6.800   0.9797   0.00000  -0.00140  -0.0253   0.0000   0.0000
   6.900   0.9920   0.00000  -0.00140  -0.0255   0.0000   0.0000
   7.000   1.0042   0.00000  -0.00140  -0.0257   0.0000   0.0000
   7.100   1.0165   0.00000  -0.00140  -0.0259   0.0000   0.0000
   7.200   1.0287   0.00000  -0.00140  -0.0261   0.0000   0.0000
   7.300   1.0410   0.00000  -0.00141  -0.0264   0.0000   0.0000
   7.400   1.0532   0.00000  -0.00141  -0.0266   0.0000   0.0000
   7.500   1.0654   0.00000  -0.00141  -0.0268   0.0000   0.0000
   7.600   1.0777   0.00000  -0.00141  -0.0270   0.0000   0.0000
   7.700   1.0899   0.00000  -0.00141  -0.0272   0.0000   0.0000
   7.800   1.1021   0.00000  -0.00141  -0.0274   0.0000   0.0000
   7.900   1.1143   0.00000  -0.00141  -0.0277   0.0000   0.0000
   8.000   1.1266   0.00000  -0.00141  -0.0279   0.0000   0.0000
   8.100   1.1388   0.00000  -0.00141  -0.0281   0.0000   0.0000
   8.200   1.1510   0.00000  -0.00142  -0.0283   0.0000   0.0000
   8.300   1.1632   0.00000  -0.00142  -0.0285   0.0000   0.0000
   8.400   1.1754   0.00000  -0.00142  -0.0288   0.0000   0.0000
   8.500   1.1876   0.00000  -0.00142  -0.0290   0.0000   0.0000
   8.600   1.1998   0.00000  -0.00142  -0.0292   0.0000   0.0000
   8.700   1.2120   0.00000  -0.00142  -0.0294   0.0000   0.0000
   8.800   1.2242   0.00000  -0.00142  -0.0296   0.0000   0.0000
   8.900   1.2364   0.00000  -0.00143  -0.0299   0.0000   0.0000
   9.000   1.2485   0.00000  -0.00143  -0.0301   0.0000   0.0000
   9.100   1.2607   0.00000  -0.00143  -0.0303   0.0000   0.0000
   9.200   1.2729   0.00000  -0.00143  -0.0305   0.0000   0.0000
   9.300   1.2851   0.00000  -0.00143  -0.0308   0.0000   0.0000
   9.400   1.2972   0.00000  -0.00143  -0.0310   0.0000   0.0000
   9.500   1.3094   0.00000  -0.00143  -0.0312   0.0000   0.0000
   9.600   1.3215   0.00000  -0.00144  -0.0314   0.0000   0.0000
   9.700   1.3337   0.00000  -0.00144  -0.0316   0.0000   0.0000
   9.800   1.3458   0.00000  -0.00144  -0.0319   0.0000   0.0000
   9.900   1.3580   0.00000  -0.00144  -0.0321   0.0000   0.0000
