  
       XFOIL         Version 6.99
  
 Calculated polar for:                                                 
  
 1 1 Reynolds number fixed          Mach number fixed         
  
 xtrf =   1.000 (top)        1.000 (bottom)  
 Mach =   0.000     Re =     1.000 e 6     Ncrit =   9.000
  
   alpha    CL        CD       CDp       CM     Top_Xtr  Bot_Xtr
  ------ -------- --------- --------- -------- -------- --------
   0.500   0.0919   0.01943   0.01581  -0.0102   0.8581   0.8627
   1.500   0.2020   0.01909   0.01543  -0.0125   0.8410   0.8739
   2.000   0.2593   0.02016   0.01650  -0.0141   0.8269   0.8750
   2.500   0.3223   0.02070   0.01702  -0.0172   0.8108   0.8761
   3.000   0.3861   0.02118   0.01746  -0.0206   0.7969   0.8773
   3.500   0.4371   0.02172   0.01794  -0.0208   0.7749   0.8800
   4.000   0.4549   0.02184   0.01795  -0.0130   0.7486   0.8881
   4.500   0.4992   0.02296   0.01897  -0.0117   0.7186   0.8890
   5.000   0.5348   0.02421   0.02008  -0.0085   0.6820   0.8905
   5.500   0.5646   0.02539   0.02117  -0.0041   0.6498   0.8932
   6.000   0.5565   0.02636   0.02195   0.0092   0.6053   0.9015
   6.500   0.5860   0.02803   0.02344   0.0132   0.5620   0.9027
   7.000   0.6151   0.02969   0.02494   0.0172   0.5189   0.9043
   7.500   0.6478   0.03088   0.02603   0.0203   0.4862   0.9070
   8.500   0.6816   0.03339   0.02821   0.0332   0.4063   0.9152
   9.000   0.7169   0.03505   0.02972   0.0351   0.3700   0.9164
   9.500   0.7468   0.03645   0.03098   0.0381   0.3359   0.9187
  10.000   0.7377   0.03789   0.03216   0.0497   0.2882   0.9257
  10.500   0.7857   0.03893   0.03324   0.0487   0.2786   0.9264
  11.000   0.8182   0.04063   0.03483   0.0505   0.2519   0.9274
  11.500   0.8538   0.04201   0.03616   0.0518   0.2343   0.9289
  12.000   0.8480   0.04315   0.03722   0.0624   0.2143   0.9362
  12.500   0.8833   0.04490   0.03889   0.0631   0.1943   0.9368
  13.000   0.9168   0.04671   0.04067   0.0640   0.1777   0.9375
  13.500   0.9496   0.04855   0.04246   0.0649   0.1637   0.9384
  14.000   0.9752   0.05078   0.04462   0.0670   0.1464   0.9399
  14.500   0.9682   0.05194   0.04580   0.0770   0.1400   0.9463
  15.000   0.9974   0.05421   0.04804   0.0777   0.1287   0.9468
  15.500   1.0289   0.05652   0.05037   0.0778   0.1199   0.9474
  16.000   1.0570   0.05888   0.05275   0.0784   0.1123   0.9482
  16.500   1.0764   0.06158   0.05545   0.0802   0.1035   0.9493
  17.000   1.0618   0.06327   0.05719   0.0906   0.1001   0.9554
  17.500   1.0869   0.06618   0.06012   0.0905   0.0931   0.9558
  18.000   1.1108   0.06926   0.06325   0.0904   0.0886   0.9563
  18.500   1.1285   0.07260   0.06665   0.0909   0.0838   0.9568
  19.000   1.1441   0.07598   0.07008   0.0917   0.0794   0.9576
  19.500   1.1560   0.07953   0.07370   0.0928   0.0753   0.9585
