  
       XFOIL         Version 6.99
  
 Calculated polar for: NACA 23015                                      
  
 1 1 Reynolds number fixed          Mach number fixed         
  
 xtrf =   1.000 (top)        1.000 (bottom)  
 Mach =   0.000     Re =     1.000 e 6     Ncrit =   9.000
  
   alpha    CL        CD       CDp       CM     Top_Xtr  Bot_Xtr
  ------ -------- --------- --------- -------- -------- --------
   0.000   0.1206   0.00679   0.00166  -0.0076   0.4468   0.6906
   0.100   0.1312   0.00681   0.00167  -0.0074   0.4391   0.7011
   0.200   0.1420   0.00681   0.00168  -0.0073   0.4316   0.7119
   0.300   0.1526   0.00683   0.00169  -0.0071   0.4235   0.7222
   0.400   0.1634   0.00684   0.00170  -0.0070   0.4164   0.7334
   0.500   0.1739   0.00684   0.00172  -0.0068   0.4084   0.7444
   0.700   0.1951   0.00688   0.00176  -0.0065   0.3931   0.7661
   0.800   0.2055   0.00691   0.00178  -0.0063   0.3852   0.7776
   0.900   0.2162   0.00692   0.00180  -0.0061   0.3776   0.7894
   1.000   0.2265   0.00695   0.00184  -0.0059   0.3694   0.7995
   1.100   0.2374   0.00698   0.00186  -0.0058   0.3624   0.8085
   1.200   0.2481   0.00702   0.00188  -0.0057   0.3546   0.8150
   1.300   0.2588   0.00706   0.00191  -0.0055   0.3478   0.8215
   1.400   0.2699   0.00710   0.00193  -0.0055   0.3410   0.8278
   1.500   0.2805   0.00715   0.00196  -0.0053   0.3339   0.8335
   1.600   0.2914   0.00718   0.00199  -0.0052   0.3281   0.8398
   1.700   0.3023   0.00723   0.00202  -0.0051   0.3217   0.8459
   1.900   0.3239   0.00731   0.00209  -0.0049   0.3099   0.8571
   2.000   0.3347   0.00737   0.00212  -0.0048   0.3038   0.8631
   2.100   0.3454   0.00743   0.00216  -0.0046   0.2975   0.8683
   2.200   0.3562   0.00746   0.00219  -0.0045   0.2929   0.8737
   2.300   0.3670   0.00751   0.00223  -0.0044   0.2877   0.8792
   2.400   0.3777   0.00758   0.00227  -0.0043   0.2823   0.8845
   2.500   0.3885   0.00762   0.00231  -0.0041   0.2781   0.8892
   2.600   0.3993   0.00766   0.00235  -0.0040   0.2743   0.8942
   2.700   0.4101   0.00772   0.00238  -0.0039   0.2703   0.8993
   2.800   0.4208   0.00778   0.00243  -0.0037   0.2662   0.9039
   2.900   0.4314   0.00784   0.00248  -0.0036   0.2625   0.9081
   3.000   0.4423   0.00787   0.00252  -0.0035   0.2599   0.9126
   3.100   0.4530   0.00792   0.00256  -0.0033   0.2570   0.9174
   3.200   0.4637   0.00798   0.00260  -0.0032   0.2539   0.9216
   3.300   0.4744   0.00804   0.00265  -0.0030   0.2506   0.9252
   3.400   0.4849   0.00812   0.00271  -0.0028   0.2469   0.9292
   3.500   0.4956   0.00816   0.00275  -0.0027   0.2450   0.9335
   3.600   0.5061   0.00820   0.00279  -0.0025   0.2429   0.9376
   3.700   0.5172   0.00825   0.00284  -0.0025   0.2407   0.9406
   3.800   0.5281   0.00831   0.00289  -0.0024   0.2383   0.9438
   3.900   0.5387   0.00838   0.00294  -0.0022   0.2361   0.9474
   4.000   0.5489   0.00845   0.00300  -0.0019   0.2337   0.9513
   4.100   0.5592   0.00853   0.00306  -0.0017   0.2310   0.9546
   4.200   0.5710   0.00859   0.00312  -0.0018   0.2293   0.9569
   4.300   0.5827   0.00863   0.00317  -0.0019   0.2281   0.9594
   4.400   0.5939   0.00869   0.00322  -0.0019   0.2266   0.9622
   4.500   0.6047   0.00874   0.00327  -0.0018   0.2249   0.9654
   4.600   0.6149   0.00880   0.00332  -0.0015   0.2232   0.9686
   4.700   0.6279   0.00887   0.00337  -0.0019   0.2212   0.9700
   4.800   0.6406   0.00895   0.00344  -0.0023   0.2191   0.9715
   4.900   0.6533   0.00904   0.00351  -0.0026   0.2169   0.9731
   5.000   0.6659   0.00915   0.00360  -0.0029   0.2145   0.9748
   5.100   0.6788   0.00921   0.00366  -0.0033   0.2133   0.9766
   5.200   0.6913   0.00926   0.00371  -0.0036   0.2123   0.9784
   5.300   0.7028   0.00931   0.00377  -0.0036   0.2113   0.9807
   5.400   0.7158   0.00937   0.00382  -0.0041   0.2100   0.9820
   5.500   0.7303   0.00944   0.00388  -0.0048   0.2085   0.9826
   5.600   0.7448   0.00951   0.00395  -0.0056   0.2069   0.9832
   5.700   0.7594   0.00959   0.00401  -0.0063   0.2052   0.9837
   5.800   0.7739   0.00968   0.00408  -0.0071   0.2034   0.9842
   5.900   0.7881   0.00978   0.00416  -0.0078   0.2014   0.9848
   6.000   0.8021   0.00989   0.00426  -0.0085   0.1992   0.9855
   6.100   0.8163   0.00998   0.00434  -0.0092   0.1979   0.9862
   6.200   0.8306   0.01003   0.00440  -0.0099   0.1971   0.9869
   6.300   0.8447   0.01008   0.00446  -0.0106   0.1962   0.9877
   6.400   0.8587   0.01014   0.00452  -0.0112   0.1951   0.9886
   6.500   0.8724   0.01020   0.00458  -0.0118   0.1938   0.9895
   6.600   0.8859   0.01027   0.00464  -0.0124   0.1924   0.9904
   6.700   0.8992   0.01034   0.00471  -0.0129   0.1911   0.9915
   6.800   0.9120   0.01042   0.00478  -0.0133   0.1896   0.9925
   6.900   0.9252   0.01051   0.00486  -0.0138   0.1882   0.9933
   7.000   0.9393   0.01061   0.00494  -0.0145   0.1866   0.9937
   7.100   0.9532   0.01073   0.00504  -0.0152   0.1846   0.9942
   7.200   0.9670   0.01084   0.00514  -0.0159   0.1830   0.9947
   7.300   0.9813   0.01088   0.00520  -0.0166   0.1824   0.9952
   7.400   0.9956   0.01093   0.00526  -0.0173   0.1815   0.9958
   7.500   1.0096   0.01098   0.00532  -0.0180   0.1804   0.9964
   7.600   1.0236   0.01104   0.00538  -0.0187   0.1793   0.9969
   7.700   1.0374   0.01111   0.00545  -0.0193   0.1781   0.9976
   7.800   1.0511   0.01119   0.00553  -0.0199   0.1769   0.9982
   7.900   1.0648   0.01127   0.00560  -0.0206   0.1756   0.9987
   8.000   1.0783   0.01136   0.00568  -0.0212   0.1741   0.9993
   8.100   1.0918   0.01146   0.00577  -0.0218   0.1726   0.9998
   8.200   1.1017   0.01157   0.00587  -0.0216   0.1710   1.0000
   8.300   1.1085   0.01169   0.00598  -0.0209   0.1694   1.0000
   8.400   1.1162   0.01175   0.00606  -0.0202   0.1686   1.0000
   8.500   1.1243   0.01180   0.00611  -0.0197   0.1681   1.0000
   8.600   1.1324   0.01184   0.00617  -0.0191   0.1674   1.0000
   8.700   1.1404   0.01189   0.00623  -0.0185   0.1666   1.0000
   8.800   1.1483   0.01195   0.00629  -0.0179   0.1657   1.0000
   8.900   1.1562   0.01200   0.00636  -0.0173   0.1648   1.0000
   9.000   1.1640   0.01207   0.00643  -0.0167   0.1638   1.0000
   9.100   1.1717   0.01214   0.00650  -0.0161   0.1627   1.0000
   9.200   1.1793   0.01222   0.00658  -0.0154   0.1617   1.0000
   9.300   1.1868   0.01230   0.00666  -0.0148   0.1606   1.0000
   9.400   1.1941   0.01239   0.00674  -0.0141   0.1594   1.0000
   9.500   1.2013   0.01250   0.00684  -0.0134   0.1580   1.0000
   9.600   1.2080   0.01263   0.00696  -0.0126   0.1565   1.0000
   9.700   1.2150   0.01275   0.00709  -0.0119   0.1552   1.0000
   9.800   1.2234   0.01280   0.00715  -0.0114   0.1547   1.0000
   9.900   1.2317   0.01285   0.00722  -0.0109   0.1540   1.0000
  10.000   1.2400   0.01291   0.00730  -0.0104   0.1532   1.0000
  10.100   1.2483   0.01298   0.00738  -0.0099   0.1522   1.0000
  10.200   1.2565   0.01306   0.00746  -0.0094   0.1512   1.0000
  10.300   1.2646   0.01314   0.00754  -0.0088   0.1501   1.0000
  10.400   1.2726   0.01323   0.00764  -0.0083   0.1490   1.0000
  10.500   1.2804   0.01332   0.00773  -0.0077   0.1478   1.0000
  10.600   1.2882   0.01343   0.00783  -0.0072   0.1466   1.0000
  10.700   1.2957   0.01356   0.00795  -0.0066   0.1452   1.0000
  10.800   1.3029   0.01371   0.00809  -0.0060   0.1436   1.0000
  10.900   1.3104   0.01385   0.00823  -0.0054   0.1423   1.0000
  11.000   1.3194   0.01391   0.00832  -0.0050   0.1416   1.0000
  11.100   1.3283   0.01398   0.00841  -0.0047   0.1408   1.0000
  11.200   1.3372   0.01406   0.00851  -0.0043   0.1398   1.0000
  11.300   1.3458   0.01416   0.00861  -0.0040   0.1387   1.0000
  11.400   1.3543   0.01426   0.00872  -0.0036   0.1375   1.0000
  11.500   1.3627   0.01437   0.00883  -0.0032   0.1362   1.0000
  11.600   1.3708   0.01450   0.00895  -0.0028   0.1349   1.0000
  11.700   1.3787   0.01464   0.00909  -0.0023   0.1335   1.0000
  11.800   1.3862   0.01480   0.00925  -0.0018   0.1319   1.0000
  11.900   1.3930   0.01500   0.00943  -0.0012   0.1303   1.0000
  12.000   1.4020   0.01508   0.00954  -0.0009   0.1296   1.0000
  12.100   1.4108   0.01517   0.00965  -0.0006   0.1287   1.0000
  12.200   1.4192   0.01528   0.00977  -0.0002   0.1276   1.0000
  12.300   1.4272   0.01539   0.00990   0.0003   0.1264   1.0000
  12.400   1.4347   0.01552   0.01003   0.0008   0.1251   1.0000
  12.500   1.4418   0.01566   0.01017   0.0014   0.1239   1.0000
  12.600   1.4484   0.01582   0.01033   0.0020   0.1225   1.0000
  12.700   1.4547   0.01600   0.01051   0.0027   0.1211   1.0000
  12.800   1.4605   0.01621   0.01072   0.0035   0.1195   1.0000
  12.900   1.4673   0.01638   0.01089   0.0040   0.1184   1.0000
  13.000   1.4751   0.01650   0.01103   0.0045   0.1175   1.0000
  13.100   1.4827   0.01663   0.01119   0.0049   0.1165   1.0000
  13.200   1.4899   0.01679   0.01136   0.0054   0.1153   1.0000
  13.300   1.4969   0.01696   0.01154   0.0059   0.1140   1.0000
  13.400   1.5035   0.01715   0.01173   0.0065   0.1126   1.0000
  13.500   1.5098   0.01737   0.01194   0.0071   0.1112   1.0000
  13.600   1.5155   0.01761   0.01219   0.0077   0.1097   1.0000
  13.700   1.5208   0.01789   0.01246   0.0084   0.1081   1.0000
  13.800   1.5282   0.01805   0.01265   0.0088   0.1072   1.0000
  13.900   1.5354   0.01823   0.01285   0.0092   0.1061   1.0000
  14.000   1.5421   0.01844   0.01307   0.0097   0.1049   1.0000
  14.100   1.5484   0.01866   0.01330   0.0102   0.1035   1.0000
  14.200   1.5543   0.01892   0.01356   0.0107   0.1021   1.0000
  14.300   1.5597   0.01921   0.01385   0.0113   0.1007   1.0000
  14.400   1.5647   0.01953   0.01417   0.0119   0.0991   1.0000
  14.500   1.5696   0.01985   0.01450   0.0125   0.0976   1.0000
  14.600   1.5762   0.02008   0.01476   0.0129   0.0967   1.0000
  14.700   1.5823   0.02034   0.01504   0.0133   0.0955   1.0000
  14.800   1.5880   0.02063   0.01534   0.0138   0.0941   1.0000
  14.900   1.5931   0.02097   0.01568   0.0143   0.0927   1.0000
  15.000   1.5975   0.02134   0.01606   0.0148   0.0912   1.0000
  15.100   1.6014   0.02177   0.01648   0.0154   0.0896   1.0000
  15.200   1.6054   0.02219   0.01691   0.0159   0.0882   1.0000
  15.300   1.6110   0.02250   0.01725   0.0163   0.0871   1.0000
  15.400   1.6161   0.02286   0.01763   0.0167   0.0859   1.0000
  15.500   1.6205   0.02328   0.01806   0.0171   0.0845   1.0000
  15.600   1.6244   0.02374   0.01852   0.0176   0.0831   1.0000
  15.700   1.6274   0.02426   0.01905   0.0180   0.0816   1.0000
  15.800   1.6298   0.02484   0.01964   0.0185   0.0801   1.0000
  15.900   1.6338   0.02532   0.02014   0.0189   0.0789   1.0000
  16.000   1.6380   0.02579   0.02063   0.0192   0.0777   1.0000
  16.100   1.6414   0.02631   0.02117   0.0196   0.0764   1.0000
  16.200   1.6441   0.02692   0.02179   0.0199   0.0750   1.0000
  16.300   1.6460   0.02760   0.02247   0.0203   0.0736   1.0000
  16.400   1.6471   0.02836   0.02324   0.0207   0.0722   1.0000
  16.500   1.6493   0.02904   0.02394   0.0209   0.0710   1.0000
  16.600   1.6523   0.02966   0.02459   0.0212   0.0699   1.0000
  16.700   1.6546   0.03035   0.02531   0.0214   0.0687   1.0000
  16.800   1.6560   0.03114   0.02611   0.0216   0.0675   1.0000
  16.900   1.6566   0.03202   0.02700   0.0218   0.0663   1.0000
  17.000   1.6564   0.03299   0.02798   0.0219   0.0651   1.0000
  17.100   1.6555   0.03405   0.02907   0.0221   0.0639   1.0000
  17.200   1.6574   0.03484   0.02989   0.0221   0.0630   1.0000
  17.300   1.6582   0.03576   0.03084   0.0222   0.0620   1.0000
  17.400   1.6581   0.03678   0.03188   0.0222   0.0609   1.0000
  17.500   1.6570   0.03792   0.03304   0.0222   0.0598   1.0000
  17.600   1.6549   0.03919   0.03433   0.0221   0.0588   1.0000
  17.700   1.6521   0.04056   0.03573   0.0220   0.0578   1.0000
  17.800   1.6498   0.04190   0.03710   0.0218   0.0569   1.0000
  17.900   1.6490   0.04309   0.03832   0.0216   0.0561   1.0000
  18.000   1.6473   0.04438   0.03965   0.0214   0.0552   1.0000
  18.100   1.6447   0.04580   0.04110   0.0212   0.0544   1.0000
  18.200   1.6410   0.04738   0.04271   0.0208   0.0536   1.0000
  18.300   1.6363   0.04910   0.04446   0.0204   0.0528   1.0000
  18.400   1.6308   0.05094   0.04633   0.0200   0.0520   1.0000
  18.500   1.6246   0.05290   0.04833   0.0194   0.0513   1.0000
  18.600   1.6182   0.05490   0.05037   0.0188   0.0507   1.0000
  18.700   1.6142   0.05661   0.05213   0.0183   0.0502   1.0000
  18.800   1.6093   0.05846   0.05402   0.0178   0.0496   1.0000
  18.900   1.6030   0.06052   0.05612   0.0171   0.0490   1.0000
  19.000   1.5960   0.06268   0.05833   0.0164   0.0485   1.0000
  19.100   1.5885   0.06494   0.06064   0.0156   0.0480   1.0000
  19.200   1.5796   0.06740   0.06314   0.0148   0.0475   1.0000
  19.300   1.5697   0.07001   0.06580   0.0138   0.0471   1.0000
  19.400   1.5590   0.07274   0.06858   0.0129   0.0467   1.0000
  19.500   1.5481   0.07554   0.07143   0.0118   0.0464   1.0000
  19.600   1.5364   0.07849   0.07442   0.0107   0.0460   1.0000
  19.700   1.5237   0.08162   0.07760   0.0095   0.0457   1.0000
  19.800   1.5105   0.08482   0.08086   0.0082   0.0455   1.0000
